LTspice 24.0.12 for Windows
Circuit: * C:\Users\noelj\Desktop\AIME_Analog\Schematique_ampli_V2.asc
Start Time: Tue Dec  3 11:52:47 2024
solver = Normal
Maximum thread count: 12
tnom = 27
temp = 27
method = modified trap
WARNING: Node N003 is floating.

Direct Newton iteration for .op point succeeded.
Total elapsed time: 0.153 seconds.

